/*--------------------------------*- C++ -*----------------------------------*\
  =========                 |
  \\      /  F ield         | OpenFOAM: The Open Source CFD Toolbox
   \\    /   O peration     | Website:  https://openfoam.org
    \\  /    A nd           | Version:  8
     \\/     M anipulation  |
\*---------------------------------------------------------------------------*/
FoamFile
{
    version     2.0;
    format      ascii;
    class       volScalarField;
    object      T;
}
// * * * * * * * * * * * * * * * * * * * * * * * * * * * * * * * * * * * * * //

dimensions      [ 0 0 0 1 0 0 0 ];

internalField   uniform 288.15;

//MARKER_ISOTHERMAL= ( core1, 350.0 )
//SOLID_TEMPERATURE_INIT= 288.15

boundaryField
{
    // might need zeroGradient patches with value set to 350, the isothermal temp (refer to heatedDuct tutorial)?
    // test by running openfoam and looking at the result with paraview

    // https://www.openfoam.com/documentation/guides/latest/api/turbulentTemperatureCoupledBaffleMixedFvPatchScalarField_8H_source.html
    solid1_to_fluid
    {
        type            compressible::turbulentTemperatureCoupledBaffleMixed;
        value           uniform 350;
        Tnbr            T; // name of the field
    }
}

// ************************************************************************* //
