FoamFile
{
    version     2.0;
    format      ascii;
    class       dictionary;
    location    "system";
    object      controlDict;
}
application     laplacianFoam;
startFrom       latestTime;
stopAt          endTime;
deltaT          5.0e-3;
endTime         3.0;
startTime       0.0;
writeControl    runTime;
writeInterval   0.2;
purgeWrite      0;
writeFormat     ascii;
writePrecision  6;
writeCompression off;
timeFormat      general;
timePrecision   6;
runTimeModifiable true;