CFL_ADAPT = NO
CFL_ADAPT_PARAM = (1.5, 0.5, 10.0, 10000.0)
CFL_NUMBER = 10
CONV_CAUCHY_ELEMS = 100
CONV_CAUCHY_EPS = 1.0e-6
CONV_RESIDUAL_MINVAL = -19
CONV_STARTITER = 10
INC_NONDIM = DIMENSIONAL
INNER_ITER = 100
LINEAR_SOLVER = FGMRES
LINEAR_SOLVER_ERROR = 1.0e-15
LINEAR_SOLVER_ILU_FILL_IN = 0
LINEAR_SOLVER_ITER = 5
LINEAR_SOLVER_PREC = ILU
MARKER_PLOTTING = (wall)
MARKER_SYM = (Symmetry)
MESH_FILENAME = vehicle-axi-filled.su2
MESH_FORMAT = SU2
NUM_METHOD_GRAD = GREEN_GAUSS
OBJECTIVE_FUNCTION = TOTAL_HEATFLUX
OBJECTIVE_WEIGHT = 1
RK_ALPHA_COEFF = (0.66667, 0.66667, 1.0)
SOLID_DENSITY = 8670
SOLID_TEMPERATURE_INIT = 300
SOLID_THERMAL_CONDUCTIVITY = 17.3
SOLVER = HEAT_EQUATION
SPECIFIC_HEAT_CP = 426.4
TIME_DISCRE_HEAT = EULER_IMPLICIT
