ADJ_SHARP_LIMITER_COEFF = 3
AOA = 0
CFL_ADAPT = YES
CFL_ADAPT_PARAM = (0.5, 1.0, 0.1, 1.0e10)
CFL_NUMBER = 5
CONDUCTIVITY_MODEL = CONSTANT_PRANDTL
CONV_CAUCHY_ELEMS = 100
CONV_CAUCHY_EPS = 1.0e-10
CONV_FIELD = RMS_DENSITY
CONV_NUM_METHOD_FLOW = ROE
CONV_NUM_METHOD_TURB = SCALAR_UPWIND
CONV_RESIDUAL_MINVAL = -13
CONV_STARTITER = 10
FLUID_MODEL = STANDARD_AIR
FREESTREAM_OPTION = TEMPERATURE_FS
FREESTREAM_TEMPERATURE = 62.7
GAMMA_VALUE = 1.4
GAS_CONSTANT = 287.058
INIT_OPTION = REYNOLDS
INNER_ITER = 10000
JST_SENSOR_COEFF = 0.5, 2.0e-2
KIND_TURB_MODEL = SA
LIMITER_ITER = 15000
LINEAR_SOLVER = FGMRES
LINEAR_SOLVER_ERROR = 1.0e-6
LINEAR_SOLVER_ILU_FILL_IN = 0
LINEAR_SOLVER_ITER = 100
LINEAR_SOLVER_PREC = ILU
MACH_NUMBER = 5.94
MARKER_MONITORING = (wall)
MARKER_PLOTTING = (wall)
MARKER_SUPERSONIC_INLET = (inflow, 200.0, 57.4, 2000.0, 0.0, 0.0)
MARKER_SUPERSONIC_OUTLET = (outflow)
MARKER_SYM = (Symmetry)
MESH_FILENAME = fore-aft-no-sting-axi.su2
MESH_FORMAT = SU2
MUSCL_FLOW = YES
MUSCL_TURB = NO
MU_REF = 1.716e-5
MU_T_REF = 273.15
NUM_METHOD_GRAD = WEIGHTED_LEAST_SQUARES
OBJECTIVE_FUNCTION = TOTAL_HEATFLUX
OBJECTIVE_WEIGHT = 1
PRANDTL_LAM = 0.72
PRANDTL_TURB = 0.9
REF_SHARP_EDGES = 3
REYNOLDS_LENGTH = 6
REYNOLDS_NUMBER = 2000000
RK_ALPHA_COEFF = (0.66667, 0.66667, 1.0)
SENS_REMOVE_SHARP = NO
SIDESLIP_ANGLE = 0
SLOPE_LIMITER_FLOW = NONE
SLOPE_LIMITER_TURB = VENKATAKRISHNAN
SOLVER = RANS
SUTHERLAND_CONSTANT = 110.4
TIME_DISCRE_FLOW = EULER_IMPLICIT
TIME_DISCRE_TURB = EULER_IMPLICIT
VENKAT_LIMITER_COEFF = 0.1
VISCOSITY_MODEL = SUTHERLAND
