CONFIG_LIST = (m1.cfg, m2.cfg)
CONV_FILENAME = history
DEFORM_CONSOLE_OUTPUT = YES
DEFORM_LINEAR_SOLVER = FGMRES
DEFORM_LINEAR_SOLVER_ITER = 200
DEFORM_NONLINEAR_ITER = 100
DEFORM_STIFFNESS_TYPE = INVERSE_VOLUME
GRAD_OBJFUNC_FILENAME = of_grad.dat
HISTORY_OUTPUT = (ITER, RMS_RES, MAX_RES, CFL_NUMBER)
MARKER_CHT_INTERFACE = (wall, wall)
MARKER_ZONE_INTERFACE = (wall, wall)
MATH_PROBLEM = DIRECT
MULTIZONE_MESH = NO
OBJECTIVE_FUNCTION = TOTAL_HEATFLUX
OBJECTIVE_WEIGHT = 1
OUTER_ITER = 1000
OUTPUT_FILES = (PARAVIEW, SURFACE_PARAVIEW, PARAVIEW_ASCII, CSV)
RESTART_SOL = NO
SOLVER = MULTIPHYSICS
SURFACE_ADJ_FILENAME = surface_adjoint
SURFACE_FILENAME = surface_flow
TIME_DOMAIN = YES
TIME_ITER = 200
TIME_MARCHING = DUAL_TIME_STEPPING-2ND_ORDER
TIME_STEP = 5.0e-3
VALUE_OBJFUNC_FILENAME = of_eval.dat
VISUALIZE_VOLUME_DEF = YES
VOLUME_ADJ_FILENAME = adjoint
VOLUME_FILENAME = flow
VOLUME_OUTPUT = (COORDINATES, SOLUTION, PRIMITIVE)
