/*--------------------------------*- C++ -*----------------------------------*\
| =========                 |                                                 |
| \\      /  F ield         | OpenFOAM: The Open Source CFD Toolbox           |
|  \\    /   O peration     | Version:  9                                     |
|   \\  /    A nd           | Web:      www.OpenFOAM.org                      |
|    \\/     M anipulation  |                                                 |
\*---------------------------------------------------------------------------*/
FoamFile
{
    version     2.0;
    format      ascii;
    class       dictionary;
    object      thermophysicalProperties;
}
// * * * * * * * * * * * * * * * * * * * * * * * * * * * * * * * * * * * * * //

thermoType
{
    type            heSolidThermo;
    mixture         pureMixture;
    transport       constIso;
    thermo          hConst;
    equationOfState rhoConst;
    specie          specie;
    energy          sensibleEnthalpy;
}

//https://www.openfoam.com/documentation/guides/latest/api/classFoam_1_1solidProperties.html#a0038fb392022aa13d08ff2674ecaf3e7
//molar mass is not necessary for solids, but openfoam will complain if it does not exist:
//https://www.cfd-online.com/Forums/openfoam/174608-chtmultiregionsimplefoam-confusion-geometry-creation-using-blockmesh.html
//https://www.cfd-online.com/Forums/cfx/187207-material-properties-molar-mass.html

mixture
{
    specie
    {
        molWeight   12; // molar weight, [g/mol]
    }
    transport
    {
        kappa   0.1; // Thermal conductivity [W/(m.K)]
    }
    thermodynamics
    {
        Hf      0;
        Cp      1004.703; // Specific heat capacity [J/(kg.K)]
    }
    equationOfState
    {
        rho     0.00042; // Density [kg/m3]
    }
}

// ************************************************************************* //
