SOLVER= HEAT_EQUATION
MATH_PROBLEM= DIRECT
RESTART_SOL= NO
OBJECTIVE_FUNCTION= TOTAL_HEATFLUX
TIME_DOMAIN= YES
TIME_STEP= 5.0e-3
MAX_TIME= 3.0
INNER_ITER= 200
TIME_ITER= 600
MARKER_ISOTHERMAL= ( left, 573.0, right, 273.0 )
MARKER_HEATFLUX= ( bottom, 0.0, top, 0.0 )
MARKER_PLOTTING= ( left, right, bottom, top )
INC_NONDIM = DIMENSIONAL
SOLID_TEMPERATURE_INIT = 273.0

NUM_METHOD_GRAD= GREEN_GAUSS
LINEAR_SOLVER= FGMRES
LINEAR_SOLVER_PREC= ILU
LINEAR_SOLVER_ILU_FILL_IN= 0
LINEAR_SOLVER_ERROR= 1E-15
LINEAR_SOLVER_ITER= 5
CONV_RESIDUAL_MINVAL= -19.0
CONV_STARTITER= 10
CONV_CAUCHY_ELEMS= 100
CONV_CAUCHY_EPS= 1.0e-6
MESH_FILENAME= mesh_solid_rod.su2
MESH_FORMAT= SU2
TABULAR_FORMAT= CSV
CONV_FILENAME= history
VOLUME_FILENAME= flow
SURFACE_FILENAME= surface_flow
OUTPUT_WRT_FREQ = 250
SCREEN_WRT_FREQ_TIME = 1