--------------------------------------------------------------------
-- LINK code Documentation --
--------------------------------------------------------------------

config {
	timeStep  : Int Unit -- size of the time step
	totalTime : Int Unit -- total amount of time 
	? -- constant variables
	run: ? 
	Backend : BackEndType
}
model id (id) {
	technique : TechniqueType
	boundaryField :?
	physics : physicsType
	? -- constant variables
	? -- math equations
	solve id with { SolvingTechniqueType, NumericalSchemeType}
	return id 
}


--------------------------------------------------------------------
-- BackendType in config  --
--------------------------------------------------------------------

----- BackendType ----- 
Su2 { format : FormatType 
      , time : Int -- sets a value for TimeDependent.INNER_ITER
      , plotting : PlottingType -- names of plot markers
      , MATH_PROBLEM= DIRECT -- I ADDED THIS, THIS NEEDS TO GO SOMEWHERE
      , RESTART_SOL= NO -- THIS COULD BE HARD CODED AND SKIPPED
     };

----- FormatType ----- 
Only supported by the following built-in keyword LIB_Format1 which will generate 

  InputOutput {
    MESH_FILENAME= mesh_solid_rod.su2,
    MESH_FORMAT= SU2,
    TABULAR_FORMAT= CSV,
    CONV_FILENAME= history,
    VOLUME_FILENAME= flow,
    SURFACE_FILENAME= surface_flow,
    OUTPUT_WRT_FREQ = 250,
    SCREEN_WRT_FREQ_TIME = 1
  }

----- PlottingType ----- 
Only supported by the following built-in keyword LIB_Plotting1 which will generate 

   Plotting: {
     MARKER_PLOTTING= (left, right, top, bottom )
   }


--------------------------------------------------------------------
-- physicsType in Model --
--------------------------------------------------------------------
Only supported by the following built-in keyword LIB_PhysicsParameters1 which will generate 


  ProblemDefinition {
    SOLVER = HEAT_EQUATION,
    MATH_PROBLEM= DIRECT,
    RESTART_SOL= NO, --maybe make default NO, then we can skip this line
    OBJECTIVE_FUNCTION = TOTAL_HEATFLUX
    }
  ConductionDefinition {
    INC_NONDIM = DIMENSIONAL,
    SOLID_DENSITY = 19300i kg/m^3,
    SPECIFIC_HEAT_CP = 130 J/kg*K,
    SOLID_THERMAL_CONDUCTIVITY = 318 W/m*K
  }
  

--------------------------------------------------------------------
-- SolvingTechniqueType in Model --
--------------------------------------------------------------------
Only supported by the following built-in keyword LIB_SolvingTechnique1 which will generate 

  LinearSolver {
    LINEAR_SOLVER= FGMRES,
    LINEAR_SOLVER_PREC= ILU,
    LINEAR_SOLVER_ERROR= 1E-15,
    LINEAR_SOLVER_ITER= 5
    }
 Convergence {
     CONV_RESIDUAL_MINVAL= -19,
     CONV_STARTITER= 10,
     CONV_CAUCHY_ELEMS= 100,
     CONV_CAUCHY_EPS= 1E-6
     }
   
--------------------------------------------------------------------
-- NumericalSchemeType in Model --
--------------------------------------------------------------------
Only supported by the following built-in keyword LIB_NumericalScheme1 which will generate 

NumericalSchemes {
   NUM_METHOD_GRAD = GREEN_GAUSS,
 }
