config {
    totalTime: 3 s;
    tiemstep = 5 ms;
    T: uniform 273 K;
    Run: Model1(T);
    backend: SU2
}

-------------------------------------------------------------------------------

    output : T
    technique: FVM;
    boundaryField: (ModelSolid.top, Neumann, 0;
		ModelSolid.right, Dirichlet, 273 K;
		ModelSolid.bottom, Neumann, 0;
		ModelSolid.left, Dirichlet, 573 K);
    physics: Heat Conduction

    ProblemDefinition: T {
      SOLVER = HEAT_EQUATION,
      MATH_PROBLEM= DIRECT,
      RESTART_SOL= NO, --maybe make default NO, then we can skip this line
      OBJECTIVE_FUNCTION = TOTAL_HEATFLUX
    }

    TimeDependent:{
      INNER_ITER = 200
    }

    ConductionDefinition: {
      INC_NONDIM = DIMENSIONAL,
      SOLID_DENSITY = 19300i kg/m^3,
      SPECIFIC_HEAT_CP = 130 J/kg*K,
      SOLID_THERMAL_CONDUCTIVITY = 318 W/m*K
    }

    Plotting: {
      MARKER_PLOTTING= (left, right, top, bottom )
    }

    LinearSolver: {
      LINEAR_SOLVER= FGMRES,
      LINEAR_SOLVER_PREC= ILU,
      LINEAR_SOLVER_ERROR= 1E-15,
      LINEAR_SOLVER_ITER= 5
    }

    NumericalSchemes: {
      NUM_METHOD_GRAD = GREEN_GAUSS,
    }

    Convergence: {
      CONV_RESIDUAL_MINVAL= -19,
      CONV_STARTITER= 10,
      CONV_CAUCHY_ELEMS= 100,
      CONV_CAUCHY_EPS= 1E-6
    }

    InputOutput: {
      MESH_FILENAME= mesh_solid_rod.su2,
      MESH_FORMAT= SU2,
      TABULAR_FORMAT= CSV,
      CONV_FILENAME= history,
      VOLUME_FILENAME= flow,
      SURFACE_FILENAME= surface_flow,
      OUTPUT_WRT_FREQ = 250,
      SCREEN_WRT_FREQ_TIME = 1
    }

    -- Heat conduction along a rod
    solveV:
        T;  -- solid temperature
    math:
        DT = 4e-05 m^2/s
	\frac{\partial T}{\partial t} - DT \nabla^2 T = 0
}
}
