SOLVER = MULTIPHYSICS
MATH_PROBLEM= DIRECT
RESTART_SOL= NO
CONFIG_LIST = (fluid.cfg, solid1.cfg, solid2.cfg, solid3.cfg)
MARKER_ZONE_INTERFACE = ( cylinder_outer1, cylinder_inner1, cylinder_outer2, cylinder_inner2, cylinder_outer3, cylinder_inner3)
MARKER_CHT_INTERFACE = ( cylinder_outer1, cylinder_inner1, cylinder_outer2, cylinder_inner2, cylinder_outer3, cylinder_inner3)
OBJECTIVE_FUNCTION = TOTAL_HEATFLUX
OBJECTIVE_WEIGHT= 1.0
OUTER_ITER = 15000
MESH_FILENAME= mesh_cht_3cyl_ffd.su2
MESH_FORMAT= SU2
OUTPUT_FILES= ( RESTART, TECPLOT, PARAVIEW, SURFACE_TECPLOT, SURFACE_PARAVIEW )
CONV_FILENAME= history
VOLUME_FILENAME= flow
SURFACE_FILENAME= surface_flow
OUTPUT_WRT_FREQ = 15000
SCREEN_WRT_FREQ_TIME = 1
CONV_RESIDUAL_MINVAL= -20.0