InputOutput{
	MESH_FILENAME=mesh_solid_rod.su2,
	MESH_FORMAT=SU2,
	TABULAR_FORMAT=CSV,
	CONV_FILENAME=history,
	VOLUME_FILENAME=flow,
	SURFACE_FILENAME=surface_flow,
	OUTPUT_WRT_FREQ=250,
	SCREEN_WRT_FREQ_TIME=1
	}

TimeDependent{
	INNER_ITER=200
	}

Plotting{
	MARKER_PLOTTING=(left,right,top,bottom)
	}

ProblemDefinition{
	SOLVER=HEAT_EQUATION,
	MATH_PROBLEM=DIRECT,
	RESTART_SO=NO,
	OBJECTIVE_FUNCTION=TOTAL_HEATFLUX
	}

ConductionDefinition{
	INC_NONDIM=DIMENSIONAL,
	SOLID_DENSITY=19300i kg/m^3,
	SPECIFIC_HEAT_CP=130 J/kg*K,
	SOLID_THERMAL_CONDUCTIVITY=318 W/m*Ks
	}

NumericalSchemes{
	 NUM_METHOD_GRAD=GREEN_GAUSS
	}

LinearSolver{
	LINEAR_SOLVER=FGMRES,
	LINEAR_SOLVER_PREC=ILU,
	LINEAR_SOLVER_ERROR=1E-15,
	LINEAR_SOLVER_ITER=5
	}

Convergence{
	CONV_RESIDUAL_MINVAL=-19,
	CONV_STARTITER=10,
	CONV_CAUCHY_ELEMS=100,
	CONV_CAUCHY_EPS=1E-6
	}