CONV_CAUCHY_ELEMS = 100
CONV_CAUCHY_EPS = 1.0e-6
CONV_FILENAME = history
CONV_RESIDUAL_MINVAL = -19
CONV_STARTITER = 10
INC_NONDIM = DIMENSIONAL
INNER_ITER = 200
LINEAR_SOLVER = FGMRES
LINEAR_SOLVER_ERROR = 1.0e-15
LINEAR_SOLVER_ITER = 5
LINEAR_SOLVER_PREC = ILU
MARKER_HEATFLUX = (top, 0.0, bottom, 0.0)
MARKER_PLOTTING = (left, right, top, bottom)
MATH_PROBLEM = DIRECT
MAX_TIME = 3
MESH_FILENAME = mesh_solid_rod.su2
MESH_FORMAT = SU2
NUM_METHOD_GRAD = GREEN_GAUSS
OBJECTIVE_FUNCTION = TOTAL_HEATFLUX
OUTPUT_WRT_FREQ = 250
RESTART_SO = NO
SCREEN_WRT_FREQ_TIME = 1
SOLID_DENSITY = 19300.0
SOLID_TEMPERATURE_INIT = 273.0
SOLID_THERMAL_CONDUCTIVITY = 318.0
SOLVER = HEAT_EQUATION
SPECIFIC_HEAT_CP = 130.0
SURFACE_FILENAME = surface_flow
TABULAR_FORMAT = CSV
TIME_DOMAIN = YES
TIME_ITER = 600
TIME_STEP = 5.0e-3
VOLUME_FILENAME = flow
