FoamFile
{
    version     2.0;
    format      ascii;
    class       volScalarField;
    object      T;
}
dimensions      [0 0 0 1 0 0 0];
internalField   uniform 273.0;
boundaryField
{
    left
    {
        type            fixedValue;
        value           uniform 573.0;
    }
    right
    {
        type            fixedValue;
        value           uniform 273.0;
    }
    bottom
    {
        type            zeroGradient;
    }
    top
    {
        type            zeroGradient;
    }
}