import v2_LIB_conduction.steel as P;
import v2_LIB_fluid.steel as F
config {
  step : 2;
  totalTime : 10 s;
  const Tw = P.InitialSolidTemperature;
  run: coupleModels1 (Tw);
  -- mesh settings
  MESH_FILENAME= mesh_cht_3cyl.su2;
  MESH_FORMAT= SU2;
  -- adding marker plotting here (not needed to solve the problem)
  MARKER_PLOTTING= (cylinder_outer1, cylinder_outer2, cylinder_outer3);
  }

-------------------------------------------------------------------------------------------

ProblemDefinition mathProb { -- this needs a home
  MATH_PROBLEM= DIRECT
}

InputOutput files{ -- this needs a home
  -- input output here
  SOLUTION_FILENAME= solution_flow.dat;
  SOLUTION_ADJ_FILENAME= solution_adj.dat;
  CONV_FILENAME= history; -- default
  BREAKDOWN_FILENAME= forces_breakdown.dat;
  RESTART_FILENAME= restart_flow.dat;
  RESTART_ADJ_FILENAME= restart_adj.dat;
  VOLUME_FILENAME= flow;
  VOLUME_ADJ_FILENAME= adjoint;
  VALUE_OBJFUNC_FILENAME= of_eval.dat;
  GRAD_OBJFUNC_FILENAME= of_grad.dat;
  SURFACE_FILENAME= surface_flow;
  SURFACE_ADJ_FILENAME= surface_adjoint;
  OUTPUT_FILES= (RESTART, TECPLOT, PARAVIEW, SURFACE_TECPLOT, SURFACE_PARAVIEW);
}

GridDeformation gridDeform{ -- this needs a home
  -- grid deformation parameters
  DEFORM_LINEAR_SOLVER= FGMRES;
  DEFORM_LINEAR_SOLVER_ITER= 200;
  DEFORM_NONLINEAR_ITER= 1;
  DEFORM_CONSOLE_OUTPUT= YES;
  DEFORM_STIFFNESS_TYPE= INVERSE_VOLUME;
}

LinearSolver linSolver {
  LINEAR_SOLVER= FGMRES;
  LINEAR_SOLVER_PREC= ILU;
  LINEAR_SOLVER_ERROR= 1E-15;
  LINEAR_SOLVER_ITER= 5; -- these values seem to be defaults
}

NumericalSchemes numScheme {
  NUM_METHOD_GRAD = GREEN_GAUSS;
  CFL_NUMBER= 10.0;
  CFL_ADAPT= NO;
  CFL_ADAPT_PARAM= ( 1.5, 0.5, 10.0, 10000.0 );
  RK_ALPHA_COEFF= ( 0.66667, 0.66667, 1.000000 ); -- these values seem to be defaults
}

ConvergenceParam convParam {
  CONV_RESIDUAL_MINVAL= -19;
  CONV_STARTITER= 10;
  CONV_CAUCHY_ELEMS= 100;
  CONV_CAUCHY_EPS= 1E-6; -- these values seem to be defaults
}

-------------------------------------------------------------------------------------------
-- physical models, might get moved to its own config file

thermalConductivity thermoFluid {
  CONDUCTIVITY_MODEL= CONSTANT_PRANDTL;
  PRANDTL_LAM= 0.72;
  PRANDTL_TURB= 0.90;
}

fluidModel idealGas {
  FLUID_MODEL= STANDARD_AIR;
  GAMMA_VALUE= 1.4; -- ratio of specific heats
  GAS_CONSTANT= 287.058 J/kg*K;
}

viscosityModel visFluid {
  VISCOSITY_MODEL= SUTHERLAND;
  MU_REF= 1.716E-5; -- Sutherland Viscosity Ref
  MU_T_REF= 273.15; -- Sutherland Temperature Ref
  SUTHERLAND_CONSTANT= 110.4; -- Sutherland Constant
}

ConductionDefinition conductionSolid {
  INC_NONDIM = DIMENSIONAL;
  SOLID_TEMPERATURE_INIT= 300.0 K;
  SOLID_DENSITY = 8.67 g/cm^3;
  SPECIFIC_HEAT_CP = 426.4 J/(kg*K);
  SOLID_THERMAL_CONDUCTIVITY = 17.3 W/(m*K);
}

-------------------------------------------------------------------------------------------

model StructureModel (qw) {
  technique : FEM;
  boundaryField : (Everywhere,  Neumann, qw); --Needs to be fixed
  MARKER_ISOTHERMAL= ( MarkerName.solid_surace, 300.0 )
  physics : HeatTransfer{P};
  const rhos = P.SolidDensity;
  const ks = P.SolidThermalConductivity;
  const cps = P.SolidSpecificHeat;
  var Tw;
  rhos*cps*∇Tw- ks*△Tw = qw;
  solve Tw with {numScheme, linSolver, convParam};
  return Tw;
  }

model FluidModel(Tw) {
  output : qw;
  technique : FVM;
  boundaryField: (Everywhere, Dirichlet, P.InitialSolidTemperature); --Needs to be fixed
  MARKER_FAR= ( MarkerName.farfield );
  physics : FluidFlow {F};
  OBJECTIVE_FUNCTION = TOTAL_HEATFLUX; -- evaluated at the surfaces listed in MARKER_MONITORING
  MARKER_MONITORING= (cylinder_outer1, cylinder_outer2, cylinder_outer3);
  KIND_TURB_MODEL= NONE;
  SOLVER= INC_NAVIER_STOKES;
  RESTART_SOL= NO;

  -- initial values
  MACH_NUMBER= 0.8;
  AOA= 0;
  SIDESLIP_ANGLE= 0.0;
  INIT_OPTION= REYNOLDS;
  FREESTREAM_OPTION= TEMPERATURE_FS;
  FREESTREAM_TEMPERATURE= 62.7 K; -- T∞
  REYNOLDS_NUMBER= 2E6; -- Re∞, d
  REYNOLDS_LENGTH= 6 inches; -- diameter of the cone

  const gamma = F.standardAir.ratio_Specific_Heat; -- a perfect gas
  const mu = F.sutherland.viscosityRef; -- dynamic viscosity, depends on temperature!
  const R =  F.standardAir.GasConstant; -- specific gas constant
  const Pr = F.constant_prandtl.LaminarPrandtlNumber; -- Prandtl number

  -- variables we are solving for
  var u; -- velocity in x direction (U = [u, v, w])
  var v; --  velocity in y direction (U = [u, v, w])
  var w; -- velocity in z direction (U = [u, v, w])
  var e;  -- internal energy
  var rhof; -- fluid density
  var T; -- fluid temperature, depends on e
  var k; -- thermal conductivity, depends on mu
  var mu; -- dynamic viscosity, depends on T
  var P; -- pressure, depends on T
  var tau; -- viscous stress tensor

  -- ... removing math for now

  solve u with {numScheme, linSolver, convParam};
  solve u with {numScheme, linSolver, convParam};
  solve w with {numScheme, linSolver, convParam};
  solve e with {numScheme, linSolver, convParam};
  solve rhof with {numScheme, linSolver, convParam};
  solve tau with {numScheme, linSolver, convParam};
  -- I think T, k, mu, P are solved directly using the closure equations from the Navier-Stokes variables
  return qw;
  }

couple coupleModels1 (Tin) {
  var qw; -- heat flux
  qw = FluidModel(Tin);
  Tout = ModelSolid (qw);
  return Tout;
  }
